Version 4
SHEET 1 1436 1332
WIRE -192 -144 -432 -144
WIRE -80 -144 -192 -144
WIRE 32 -144 -80 -144
WIRE 400 -144 288 -144
WIRE 512 -144 400 -144
WIRE 816 -144 512 -144
WIRE -192 -128 -192 -144
WIRE 400 -128 400 -144
WIRE 512 -128 512 -144
WIRE -432 -80 -432 -144
WIRE -192 -48 -192 -64
WIRE 512 -48 512 -64
WIRE -80 -32 -80 -144
WIRE 32 -32 -80 -32
WIRE 400 -32 400 -64
WIRE 400 -32 288 -32
WIRE -432 16 -432 0
WIRE 32 80 0 80
WIRE 320 80 288 80
WIRE 320 96 320 80
WIRE 0 112 0 80
WIRE 320 176 320 160
WIRE -368 400 -432 400
WIRE -192 400 -288 400
WIRE -80 400 -192 400
WIRE 32 400 -80 400
WIRE 400 400 288 400
WIRE 512 400 400 400
WIRE 816 400 512 400
WIRE -192 416 -192 400
WIRE 400 416 400 400
WIRE 512 416 512 400
WIRE -432 464 -432 400
WIRE -192 496 -192 480
WIRE 512 496 512 480
WIRE -80 512 -80 400
WIRE 32 512 -80 512
WIRE 400 512 400 480
WIRE 400 512 288 512
WIRE -432 560 -432 544
WIRE 32 624 0 624
WIRE 320 624 288 624
WIRE 320 640 320 624
WIRE 0 656 0 624
WIRE 320 720 320 704
WIRE -208 992 -448 992
WIRE -96 992 -208 992
WIRE 16 992 -96 992
WIRE 384 992 272 992
WIRE 496 992 384 992
WIRE 800 992 496 992
WIRE -208 1008 -208 992
WIRE 384 1008 384 992
WIRE 496 1008 496 992
WIRE -448 1056 -448 992
WIRE -208 1088 -208 1072
WIRE 496 1088 496 1072
WIRE -96 1104 -96 992
WIRE 16 1104 -96 1104
WIRE 384 1104 384 1072
WIRE 384 1104 272 1104
WIRE -448 1152 -448 1136
WIRE 16 1216 -16 1216
WIRE 304 1216 272 1216
WIRE 304 1232 304 1216
WIRE -16 1248 -16 1216
WIRE 304 1312 304 1296
FLAG 512 -48 0
FLAG -192 -48 0
FLAG 0 112 0
FLAG 320 176 0
FLAG -432 16 0
FLAG 816 -64 0
FLAG 512 496 0
FLAG -192 496 0
FLAG 0 656 0
FLAG 320 720 0
FLAG -432 560 0
FLAG 816 480 0
FLAG 496 1088 0
FLAG -208 1088 0
FLAG -16 1248 0
FLAG 304 1312 0
FLAG -448 1152 0
FLAG 800 1072 0
SYMBOL PowerProducts\\LT3060-3.3 160 -32 R0
SYMATTR InstName U1
SYMBOL cap 528 -128 M0
SYMATTR InstName C1
SYMATTR Value 10µ
SYMBOL cap 416 -128 M0
SYMATTR InstName C2
SYMATTR Value 10n
SYMBOL cap -208 -128 R0
SYMATTR InstName C3
SYMATTR Value 1µ
SYMBOL cap 304 96 R0
SYMATTR InstName C4
SYMATTR Value 10n
SYMBOL voltage -432 -96 R0
WINDOW 123 0 0 Left 0
WINDOW 39 0 0 Left 0
SYMATTR InstName V1
SYMATTR Value 5
SYMBOL voltage -448 1040 R0
WINDOW 123 0 0 Left 0
WINDOW 39 0 0 Left 0
SYMATTR InstName V2
SYMATTR Value PULSE(4.5 5.5 1m 2m 2m 1m 6m)
SYMBOL current 816 -144 R0
WINDOW 123 0 0 Left 0
WINDOW 39 24 28 Left 2
SYMATTR SpiceLine load
SYMATTR InstName I1
SYMATTR Value SINE(50m 50m 1000)
SYMBOL voltage -272 400 R90
WINDOW 0 -32 56 VBottom 2
WINDOW 3 32 56 VTop 2
WINDOW 123 0 0 Left 0
WINDOW 39 0 0 Left 0
SYMATTR InstName V3
SYMATTR Value SINE(0 100m 10k)
SYMBOL PowerProducts\\LT3060-3.3 160 512 R0
SYMATTR InstName U2
SYMBOL cap 528 416 M0
SYMATTR InstName C5
SYMATTR Value 10µ
SYMBOL cap 416 416 M0
SYMATTR InstName C6
SYMATTR Value 10n
SYMBOL cap -208 416 R0
SYMATTR InstName C7
SYMATTR Value 1µ
SYMBOL cap 304 640 R0
SYMATTR InstName C8
SYMATTR Value 10n
SYMBOL voltage -432 448 R0
WINDOW 123 0 0 Left 0
WINDOW 39 0 0 Left 0
SYMATTR InstName V4
SYMATTR Value 5
SYMBOL current 816 400 R0
WINDOW 123 0 0 Left 0
WINDOW 39 0 0 Left 0
SYMATTR InstName I2
SYMATTR Value 100m
SYMBOL PowerProducts\\LT3060-3.3 144 1104 R0
SYMATTR InstName U3
SYMBOL cap 512 1008 M0
SYMATTR InstName C9
SYMATTR Value 10µ
SYMBOL cap 400 1008 M0
SYMATTR InstName C10
SYMATTR Value 10n
SYMBOL cap -224 1008 R0
SYMATTR InstName C11
SYMATTR Value 1µ
SYMBOL cap 288 1232 R0
SYMATTR InstName C12
SYMATTR Value 10n
SYMBOL current 800 992 R0
WINDOW 123 0 0 Left 0
WINDOW 39 0 0 Left 0
SYMATTR InstName I3
SYMATTR Value 100m
TEXT -994 112 Left 2 !.tran 10m
TEXT -24 -248 Left 2 ;no sinking ability? only sourcing?
