Version 4
SHEET 1 2184 1476
WIRE 240 -16 208 -16
WIRE 400 -16 320 -16
WIRE -272 160 -528 160
WIRE -160 160 -272 160
WIRE 256 160 64 160
WIRE 416 160 256 160
WIRE 592 160 416 160
WIRE -272 176 -272 160
WIRE 256 176 256 160
WIRE -528 240 -528 160
WIRE -272 256 -272 240
WIRE 256 256 256 240
WIRE 592 256 592 240
WIRE -48 288 -48 224
WIRE -528 368 -528 320
WIRE 208 624 128 624
WIRE 384 624 288 624
WIRE 496 624 384 624
WIRE 912 624 720 624
WIRE 1088 624 912 624
WIRE 1248 624 1088 624
WIRE 384 640 384 624
WIRE 912 640 912 624
WIRE 128 704 128 624
WIRE 384 720 384 704
WIRE 912 720 912 704
WIRE 1248 720 1248 704
WIRE 608 752 608 688
WIRE 128 832 128 784
WIRE 352 1248 96 1248
WIRE 464 1248 352 1248
WIRE 880 1248 688 1248
WIRE 1056 1248 880 1248
WIRE 1216 1248 1056 1248
WIRE 352 1264 352 1248
WIRE 880 1264 880 1248
WIRE 96 1328 96 1248
WIRE 352 1344 352 1328
WIRE 880 1344 880 1328
WIRE 1216 1344 1216 1328
WIRE 576 1376 576 1312
WIRE 96 1456 96 1408
FLAG -48 288 0
FLAG -528 368 0
FLAG 592 256 0
FLAG 256 256 0
FLAG -272 256 0
FLAG 208 -16 0
FLAG 400 -16 nom
FLAG 416 160 loadreg
FLAG 608 752 0
FLAG 128 832 0
FLAG 1248 720 0
FLAG 912 720 0
FLAG 384 720 0
FLAG 1088 624 linereg
FLAG 576 1376 0
FLAG 96 1456 0
FLAG 1216 1344 0
FLAG 880 1344 0
FLAG 352 1344 0
FLAG 1056 1248 stepped
SYMBOL References\\LT6654-3.3 -48 160 R0
SYMATTR InstName U1
SYMBOL voltage -528 224 R0
WINDOW 123 0 0 Left 0
WINDOW 39 0 0 Left 0
SYMATTR InstName V1
SYMATTR Value 5
SYMBOL current 592 160 R0
WINDOW 123 0 0 Left 0
WINDOW 39 0 0 Left 0
SYMATTR InstName I1
SYMATTR Value SINE(0 500u 10000)
SYMBOL cap 240 176 R0
SYMATTR InstName C1
SYMATTR Value 10µ
SYMBOL cap -288 176 R0
SYMATTR InstName C2
SYMATTR Value 100n
SYMBOL voltage 336 -16 R90
WINDOW 0 -32 56 VBottom 2
WINDOW 3 32 56 VTop 2
WINDOW 123 0 0 Left 0
WINDOW 39 0 0 Left 0
SYMATTR InstName V2
SYMATTR Value 3.3
SYMBOL References\\LT6654-3.3 608 624 R0
SYMATTR InstName U2
SYMBOL voltage 128 688 R0
WINDOW 123 0 0 Left 0
WINDOW 39 0 0 Left 0
SYMATTR InstName V3
SYMATTR Value 5
SYMBOL current 1248 624 R0
WINDOW 123 0 0 Left 0
WINDOW 39 0 0 Left 0
SYMATTR InstName I2
SYMATTR Value 500µ
SYMBOL cap 896 640 R0
SYMATTR InstName C3
SYMATTR Value 10µ
SYMBOL cap 368 640 R0
SYMATTR InstName C4
SYMATTR Value 100n
SYMBOL voltage 304 624 R90
WINDOW 0 -32 56 VBottom 2
WINDOW 3 32 56 VTop 2
WINDOW 123 0 0 Left 0
WINDOW 39 0 0 Left 0
SYMATTR InstName V4
SYMATTR Value SINE(0 100m 10k)
SYMBOL References\\LT6654-3.3 576 1248 R0
SYMATTR InstName U3
SYMBOL voltage 96 1312 R0
WINDOW 123 0 0 Left 0
WINDOW 39 0 0 Left 0
SYMATTR InstName V5
SYMATTR Value PULSE(4.5 5.5 1m 2m 2m 1m 6m)
SYMBOL current 1216 1248 R0
WINDOW 123 0 0 Left 0
WINDOW 39 0 0 Left 0
SYMATTR InstName I3
SYMATTR Value 500µ
SYMBOL cap 864 1264 R0
SYMATTR InstName C5
SYMATTR Value 10µ
SYMBOL cap 336 1264 R0
SYMATTR InstName C6
SYMATTR Value 100n
TEXT -392 -112 Left 2 ;VDD and VDDA should be routed separately/distant from one another, despite being the same net
TEXT -562 392 Left 2 !.tran 10m
TEXT 1008 -40 Left 2 ;from datasheet: temperature can drift no more than +/- 1.65mV (with plenty of margin on the chart)
