Version 4
SHEET 1 880 740
WIRE -928 -208 -1104 -208
WIRE -1104 -160 -1104 -208
WIRE -1104 -48 -1104 -80
WIRE -528 80 -608 80
WIRE -416 80 -528 80
WIRE -80 80 -192 80
WIRE 0 80 -80 80
WIRE -528 96 -528 80
WIRE -80 96 -80 80
WIRE -528 176 -528 160
WIRE -304 176 -304 144
WIRE -80 176 -80 160
WIRE -656 320 -736 320
WIRE -544 320 -656 320
WIRE -432 320 -544 320
WIRE -64 320 -176 320
WIRE 48 320 -64 320
WIRE 128 320 48 320
WIRE -656 336 -656 320
WIRE -64 336 -64 320
WIRE 48 336 48 320
WIRE -656 416 -656 400
WIRE 48 416 48 400
WIRE -544 432 -544 320
WIRE -432 432 -544 432
WIRE -64 432 -64 400
WIRE -64 432 -176 432
WIRE -432 544 -464 544
WIRE -144 544 -176 544
WIRE -144 560 -144 544
WIRE -464 576 -464 544
WIRE -144 640 -144 624
FLAG 0 80 VDDA
IOPIN 0 80 Out
FLAG -1104 -48 0
FLAG -928 -208 Vin
FLAG -608 80 Vin
IOPIN -608 80 In
FLAG -304 176 0
FLAG -528 176 0
FLAG -80 176 0
FLAG 128 320 VDD
IOPIN 128 320 Out
FLAG -736 320 Vin
IOPIN -736 320 In
FLAG 48 416 0
FLAG -656 416 0
FLAG -464 576 0
FLAG -144 640 0
SYMBOL References\\LT6654-3.3 -304 80 R0
SYMATTR InstName U1
SYMBOL voltage -1104 -176 R0
WINDOW 123 0 0 Left 0
WINDOW 39 0 0 Left 0
SYMATTR InstName V1
SYMATTR Value 5
SYMBOL cap -544 96 R0
SYMATTR InstName C1
SYMATTR Value 100n
SYMBOL cap -64 96 M0
SYMATTR InstName C2
SYMATTR Value 1µ
SYMBOL PowerProducts\\LT3060-3.3 -304 432 R0
SYMATTR InstName U2
SYMBOL cap 64 336 M0
SYMATTR InstName C4
SYMATTR Value 10µ
SYMBOL cap -48 336 M0
SYMATTR InstName C5
SYMATTR Value 10n
SYMBOL cap -672 336 R0
SYMATTR InstName C6
SYMATTR Value 1µ
SYMBOL cap -160 560 R0
SYMATTR InstName C3
SYMATTR Value 10n
TEXT -736 -112 Left 2 ;VDD and VDDA should be routed separately/distant from one another
TEXT -744 -72 Left 2 ;use X7R for these caps due to DC bias effect (unsure of C0G performance?)
