Version 4
SHEET 1 880 680
WIRE -928 -208 -1104 -208
WIRE -1104 -160 -1104 -208
WIRE -1104 -48 -1104 -80
WIRE -528 80 -608 80
WIRE -416 80 -528 80
WIRE -80 80 -192 80
WIRE 0 80 -80 80
WIRE -528 96 -528 80
WIRE -80 96 -80 80
WIRE -528 176 -528 160
WIRE -304 176 -304 144
WIRE -80 176 -80 160
WIRE -112 464 -288 464
FLAG -112 464 VDD
FLAG 0 80 VDDA
IOPIN 0 80 Out
FLAG -1104 -48 0
FLAG -928 -208 Vin
FLAG -608 80 Vin
IOPIN -608 80 In
FLAG -304 176 0
FLAG -528 176 0
FLAG -80 176 0
SYMBOL References\\LT6654-3.3 -304 80 R0
SYMATTR InstName U1
SYMBOL voltage -1104 -176 R0
WINDOW 123 0 0 Left 0
WINDOW 39 0 0 Left 0
SYMATTR InstName V1
SYMATTR Value 5
SYMBOL cap -544 96 R0
SYMATTR InstName C1
SYMATTR Value 100n
SYMBOL cap -64 96 M0
SYMATTR InstName C2
SYMATTR Value 1µ
TEXT -392 -112 Left 2 ;VDD and VDDA should be routed separately/distant from one another, despite being the same net
